  30
         -3.39528906
 Au         1.4053723277       -0.7752343050       -0.2245901227
 H         -1.0935212525        0.4855933848       -3.2974436283
 S         -0.5391423857       -0.6790650373       -1.5123258683
 C          1.5629373114        0.9576835029        2.4932903006
 H          1.0570775270        1.5235407907        3.2730432680
 H          2.4512175987        0.4958525334        2.9197612913
 H          1.8734162138        1.6491316032        1.7138562208
 S          0.4728953849       -0.2922387290        1.8389841065
 C         -0.9873950432        0.9322443744       -2.2974406865
 H         -1.9320204703        1.3865361518       -1.9454906213
 H         -0.1716592739        1.6713875458       -2.2267571808
 Au        -0.6738677962        1.0141285516        0.1489468145
 O         -4.8275490880       -0.4961997835       -1.2487456680
 H         -4.3116487427       -1.3026979638       -1.0521946992
 H         -5.6341715544       -0.8043742991       -1.6895927058
 O         -2.1886183284       -2.3262781529        2.3256595636
 H         -2.2816657999       -2.5920533343        3.2516085791
 H         -1.3619443527       -1.8087649317        2.2771615831
 O          3.1699281388        0.3197072066       -1.0214556131
 H          4.0027634320        0.2393522483       -0.4326893195
 H          3.3847579035        0.0864290332       -1.9940542215
 O          1.1258788414        2.3630056126       -0.3219187308
 H          1.0175692868        3.1567134869       -0.9441311847
 H          1.8923682259        1.7566387712       -0.6127904915
 O         -2.7728792456        0.3485611185        0.8348408197
 H         -2.6791462533       -0.4916101253        1.4010094887
 H         -3.4771244286        0.2166327223        0.1142019791
 O         -3.0308474897       -2.6747867920       -0.4639076278
 H         -2.8332216488       -2.6764271174        0.4912008221
 H         -2.2957107055       -2.1581822731       -0.8471718227
