           9
 SCF done      -9.94771440
AU            -0.0642749599            0.8613668585           -0.1804297895
S              1.4896258832           -0.2892062670           -1.4355349103
C              2.7572408967           -0.6036705453           -0.1589486771
H              2.3480117134           -1.2221205271            0.6357533403
H              3.5628042993           -1.1354962813           -0.6555783226
H              3.1301021367            0.3351032049            0.2405340591
O             -0.2306030653            1.0306921856            2.3148835443
H             -0.7220711948            0.2557557608            2.6011442923
H              0.6952906667            0.8804420281            2.5269547573
