  9
        -15.87080563
 Au        -0.2879257033       -0.0209641661       -0.0001611326
 S          1.9331762454       -0.5590360655        0.0006488193
 C          2.7616489156        1.0629617254       -0.0002030395
 H          2.4914056242        1.6204472562        0.8919031800
 H          3.8286549860        0.8594811599        0.0003983652
 H          2.4921518333        1.6190606220       -0.8934180980
 O         -2.5839797496        0.3325618716        0.0001838027
 H         -2.9630772238       -0.0739014910        0.7855501932
 H         -2.9658649656       -0.0922460125       -0.7740808777
  9
        -15.87001634
 Au        -0.2898037081       -0.0463042713        0.0010172637
 S          1.9445035711       -0.5297199154       -0.0019252612
 C          2.7239831896        1.1181817696       -0.0017604423
 H          2.4396698805        1.6674447058       -0.8947364995
 H          2.4389871523        1.6676313864        0.8908522351
 H          3.7964243486        0.9466061001       -0.0013416567
 O         -2.5660413069        0.4074898874       -0.0025435736
 H         -2.8193186354        0.8564034882       -0.8146539177
 H         -2.8016931171        0.9668213499        0.7436791432
